feeders/8500-Node/IEEE8500_EXP_CURRENTS.CSV
Element, I1_1, Ang1_1, I1_2, Ang1_2, I1_3, Ang1_3, I1_4, Ang1_4, Iresid1, AngResid1, I2_1, Ang2_1, I2_2, Ang2_2, I2_3, Ang2_3, I2_4, Ang2_4, Iresid2, AngResid2, I3_1, Ang3_1, I3_2, Ang3_2, I3_3, Ang3_3, I3_4, Ang3_4, Iresid3, AngResid3
Vsource.SOURCE,    59.6932,   170.90,    54.4438,    53.00,    59.0372,   -63.68,          0,     0.00, 7.87119E-009,  -108.82,    59.6932,    -9.10,    54.4438,  -127.00,    59.0372,   116.32,          0,     0.00, 7.87119E-009,    71.18,          0,     0.00,          0,     0.00,          0,     0.00,          0,     0.00,          0,     0.00
Line.HVMV_SUB_CONNECTOR,    550.823,   -38.00,    531.017,  -159.01,    499.275,    87.56,          0,     0.00,    50.6158,  -143.02,    550.823,   142.00,    531.017,    20.99,    499.275,   -92.44,          0,     0.00,    50.6158,    36.98,          0,     0.00,          0,     0.00,          0,     0.00,          0,     0.00,          0,     0.00
Line.LN5502549-1,     1.9644,   177.99,          0,     0.00,          0,     0.00,          0,     0.00,     1.9644,   177.99,    1.96455,    -2.02,          0,     0.00,          0,     0.00,          0,     0.00,    1.96455,    -2.02,          0,     0.00,          0,     0.00,          0,     0.00,          0,     0.00,          0,     0.00
Line.LN6259988-1,    1.44021,    65.56,          0,     0.00,          0,     0.00,          0,     0.00,    1.44021,    65.56,     1.4407,  -114.51,          0,     0.00,          0,     0.00,          0,     0.00,     1.4407,  -114.51,          0,     0.00,          0,     0.00,          0,     0.00,          0,     0.00,          0,     0.00
Line.LN6077796-1,    1.68375,   179.79,          0,     0.00,          0,     0.00,          0,     0.00,    1.68375,   179.79,     1.6838,    -0.21,          0,     0.00,          0,     0.00,          0,     0.00,     1.6838,    -0.21,          0,     0.00,          0,     0.00,          0,     0.00,          0,     0.00,          0,     0.00
Line.LN5835135-2,    16.6144,   178.30,          0,     0.00,          0,     0.00,          0,     0.00,    16.6144,   178.30,    16.6146,    -1.70,          0,     0.00,          0,     0.00,          0,     0.00,    16.6146,    -1.70,          0,     0.00,          0,     0.00,          0,     0.00,          0,     0.00,          0,     0.00
Line.LN5896826-1,   0.828652,  -171.20,          0,     0.00,          0,     0.00,          0,     0.00,   0.828652,  -171.20,   0.829595,     8.56,          0,     0.00,          0,     0.00,          0,     0.00,   0.829595,     8.56,          0,     0.00,          0,     0.00,          0,     0.00,          0,     0.00,          0,     0.00
Line.LN5714038-1,    2.19251,  -174.98,          0,     0.00,          0,     0.00,          0,     0.00,    2.19251,  -174.98,    2.19296,     4.97,          0,     0.00,          0,     0.00,          0,     0.00,    2.19296,     4.97,          0,     0.00,          0,     0.00,          0,     0.00,          0,     0.00,          0,     0.00
Line.LN5653457-1,    20.0717,   -59.68,    42.1422,   178.04,    15.8598,    64.80,          0,     0.00,    25.2784,  -176.52,    20.0724,   120.32,    42.1429,    -1.96,    15.8602,  -115.21,          0,     0.00,    25.2783,     3.48,          0,     0.00,          0,     0.00,          0,     0.00,          0,     0.00,          0,     0.00
Line.LN5835173-1,    28.5863,   -59.05,    63.5142,   178.21,    47.8461,    64.23,          0,     0.00,     34.724,   143.70,    28.5867,   120.95,    63.5146,    -1.79,    47.8463,  -115.77,          0,     0.00,     34.724,   -36.30,          0,     0.00,          0,     0.00,          0,     0.00,          0,     0.00,          0,     0.00
Line.LN6321415-1,    1.41604,  -173.53,          0,     0.00,          0,     0.00,          0,     0.00,    1.41604,  -173.53,    1.41646,     6.41,          0,     0.00,          0,     0.00,          0,     0.00,    1.41646,     6.41,          0,     0.00,          0,     0.00,          0,     0.00,          0,     0.00,          0,     0.00
Line.LN5565092-1,    2.15461,    64.73,          0,     0.00,          0,     0.00,          0,     0.00,    2.15461,    64.73,    2.15463,  -115.28,          0,     0.00,          0,     0.00,          0,     0.00,    2.15463,  -115.28,          0,     0.00,          0,     0.00,          0,     0.00,          0,     0.00,          0,     0.00
Line.LN6073648-1,    3.07084,   -55.64,          0,     0.00,          0,     0.00,          0,     0.00,    3.07084,   -55.64,    3.07087,   124.35,          0,     0.00,          0,     0.00,          0,     0.00,    3.07087,   124.35,          0,     0.00,          0,     0.00,          0,     0.00,          0,     0.00,          0,     0.00
Line.LN5774457-1,    30.1354,   -59.78,    24.0545,   178.25,    22.8122,    64.75,          0,     0.00,    4.74859,   -79.63,    30.1357,   120.22,    24.0549,    -1.75,    22.8124,  -115.25,          0,     0.00,    4.74858,   100.37,          0,     0.00,          0,     0.00,          0,     0.00,          0,     0.00,          0,     0.00
Line.LN5534966-3,    11.1219,   -59.26,          0,     0.00,          0,     0.00,          0,     0.00,    11.1219,   -59.26,     11.122,   120.74,          0,     0.00,          0,     0.00,          0,     0.00,     11.122,   120.74,          0,     0.00,          0,     0.00,          0,     0.00,          0,     0.00,          0,     0.00
Line.LN5859996-1,    2.80906,   178.46,          0,     0.00,          0,     0.00,          0,     0.00,    2.80906,   178.46,    2.80908,    -1.54,          0,     0.00,          0,     0.00,          0,     0.00,    2.80908,    -1.54,          0,     0.00,          0,     0.00,          0,     0.00,          0,     0.00,          0,     0.00
Line.LN6138610-2,    119.317,   -59.31,    91.0536,   178.46,    103.473,    64.58,          0,     0.00,    15.8001,   -25.10,    119.317,   120.69,    91.0538,    -1.54,    103.473,  -115.42,          0,     0.00,    15.8001,   154.90,          0,     0.00,          0,     0.00,          0,     0.00,          0,     0.00,          0,     0.00
Line.LN6258435-3,    2.53491,   -59.23,          0,     0.00,          0,     0.00,          0,     0.00,    2.53491,   -59.23,    2.53534,   120.73,          0,     0.00,          0,     0.00,          0,     0.00,    2.53534,   120.73,          0,     0.00,          0,     0.00,          0,     0.00,          0,     0.00,          0,     0.00
Line.LN5804790-1,    1.47088,    66.50,          0,     0.00,          0,     0.00,          0,     0.00,    1.47088,    66.50,    1.47174,  -113.63,          0,     0.00,          0,     0.00,          0,     0.00,    1.47174,  -113.63,          0,     0.00,          0,     0.00,          0,     0.00,          0,     0.00,          0,     0.00
Line.LN6900591-14,    4.58347,   -59.60,          0,     0.00,          0,     0.00,          0,     0.00,    4.58347,   -59.60,    4.58376,   120.39,          0,     0.00,          0,     0.00,          0,     0.00,    4.58376,   120.39,          0,     0.00,          0,     0.00,          0,     0.00,          0,     0.00,          0,     0.00
Line.LN6409873-1,    10.5563,  -174.97,          0,     0.00,          0,     0.00,          0,     0.00,    10.5563,  -174.97,    10.5566,     5.02,          0,     0.00,          0,     0.00,          0,     0.00,    10.5566,     5.02,          0,     0.00,          0,     0.00,          0,     0.00,          0,     0.00,          0,     0.00
Line.LN6014135-1,    9.65926,   -55.68,          0,     0.00,          0,     0.00,          0,     0.00,    9.65926,   -55.68,    9.65928,   124.32,          0,     0.00,          0,     0.00,          0,     0.00,    9.65928,   124.32,          0,     0.00,          0,     0.00,          0,     0.00,          0,     0.00,          0,     0.00
Line.LN6077784-1,    58.0374,   -59.72,    69.6832,   178.13,    42.4032,    64.80,          0,     0.00,    24.2579,  -156.98,    58.0379,   120.28,    69.6838,    -1.87,    42.4035,  -115.21,          0,     0.00,    24.2579,    23.02,          0,     0.00,          0,     0.00,          0,     0.00,          0,     0.00,          0,     0.00
Line.LN5744338-1,    27.2812,  -176.89,          0,     0.00,          0,     0.00,          0,     0.00,    27.2812,  -176.89,    27.2815,     3.11,          0,     0.00,          0,     0.00,          0,     0.00,    27.2815,     3.11,          0,     0.00,          0,     0.00,          0,     0.00,          0,     0.00,          0,     0.00
Line.LN6991381-4,     5.1018,   -59.41,          0,     0.00,          0,     0.00,          0,     0.00,     5.1018,   -59.41,    5.10216,   120.58,          0,     0.00,          0,     0.00,          0,     0.00,    5.10216,   120.58,          0,     0.00,          0,     0.00,          0,     0.00,          0,     0.00,          0,     0.00
Line.LN5774480-1,    31.8418,   179.81,          0,     0.00,          0,     0.00,          0,     0.00,    31.8418,   179.81,    31.8424,    -0.19,          0,     0.00,          0,     0.00,          0,     0.00,    31.8424,    -0.19,          0,     0.00,          0,     0.00,          0,     0.00,          0,     0.00,          0,     0.00
Line.LN5986938-3,    5.45583,   -59.43,          0,     0.00,          0,     0.00,          0,     0.00,    5.45583,   -59.43,    5.45587,   120.57,          0,     0.00,          0,     0.00,          0,     0.00,    5.45587,   120.57,          0,     0.00,          0,     0.00,          0,     0.00,          0,     0.00,          0,     0.00
Line.LN5894230-1,    1.44773,    69.89,          0,     0.00,          0,     0.00,          0,     0.00,    1.44773,    69.89,     1.4483,  -110.19,          0,     0.00,          0,     0.00,          0,     0.00,     1.4483,  -110.19,          0,     0.00,          0,     0.00,          0,     0.00,          0,     0.00,          0,     0.00
Line.LN5683858-3,    2.60607,   -59.57,     4.1732,   178.89,    2.93594,    64.91,          0,     0.00,    1.68096,   162.97,     2.6062,   120.42,    4.17334,    -1.11,    2.93603,  -115.10,          0,     0.00,    1.68095,   -17.03,          0,     0.00,          0,     0.00,          0,     0.00,          0,     0.00,          0,     0.00
Line.LN5920279-5,    349.474,   -49.44,    325.705,  -171.05,    224.934,    79.40,          0,     0.00,    108.895,  -119.20,    349.475,   130.56,    325.706,     8.95,    224.934,  -100.60,          0,     0.00,    108.895,    60.80,          0,     0.00,          0,     0.00,          0,     0.00,          0,     0.00,          0,     0.00
Line.LN6439600-1,    1.29782,   -59.59,          0,     0.00,          0,     0.00,          0,     0.00,    1.29782,   -59.59,     1.2983,   120.33,          0,     0.00,          0,     0.00,          0,     0.00,     1.2983,   120.33,          0,     0.00,          0,     0.00,          0,     0.00,          0,     0.00,          0,     0.00
Line.LN5589097-1,    1.96582,   -53.68,          0,     0.00,          0,     0.00,          0,     0.00,    1.96582,   -53.68,    1.96594,   126.31,          0,     0.00,          0,     0.00,          0,     0.00,    1.96594,   126.31,          0,     0.00,          0,     0.00,          0,     0.00,          0,     0.00,          0,     0.00
Line.LN5651975-1,    61.7013,   -59.45,     14.867,   179.20,    33.1692,    65.02,          0,     0.00,    38.1204,   -36.84,    61.7016,   120.55,    14.8673,    -0.81,    33.1694,  -114.98,          0,     0.00,    38.1205,   143.16,          0,     0.00,          0,     0.00,          0,     0.00,          0,     0.00,          0,     0.00
Line.LN5865236-1,    2.54713,   -59.03,          0,     0.00,          0,     0.00,          0,     0.00,    2.54713,   -59.03,    2.54717,   120.96,          0,     0.00,          0,     0.00,          0,     0.00,    2.54717,   120.96,          0,     0.00,          0,     0.00,          0,     0.00,          0,     0.00,          0,     0.00
Line.LN5593232-1,    1.44065,    65.58,          0,     0.00,          0,     0.00,          0,     0.00,    1.44065,    65.58,    1.44131,  -114.52,          0,     0.00,          0,     0.00,          0,     0.00,    1.44131,  -114.52,          0,     0.00,          0,     0.00,          0,     0.00,          0,     0.00,          0,     0.00
Line.LN5740283-1,    1.71472,    67.19,          0,     0.00,          0,     0.00,          0,     0.00,    1.71472,    67.19,    1.71475,  -112.82,          0,     0.00,          0,     0.00,          0,     0.00,    1.71475,  -112.82,          0,     0.00,          0,     0.00,          0,     0.00,          0,     0.00,          0,     0.00
Line.LN6106559-1,     3.9437,   179.79,          0,     0.00,          0,     0.00,          0,     0.00,     3.9437,   179.79,    3.94415,    -0.23,          0,     0.00,          0,     0.00,          0,     0.00,    3.94415,    -0.23,          0,     0.00,          0,     0.00,          0,     0.00,          0,     0.00,          0,     0.00
Line.LN5714056-3,    51.8452,   -59.48,    11.4084,   179.13,    25.3604,    65.01,          0,     0.00,    33.4593,   -40.00,    51.8462,   120.51,    11.4094,    -0.89,     25.361,  -115.00,          0,     0.00,    33.4593,   140.00,          0,     0.00,          0,     0.00,          0,     0.00,          0,     0.00,          0,     0.00
Line.LN5985355-3,    55.5538,   179.85,          0,     0.00,          0,     0.00,          0,     0.00,    55.5538,   179.85,    55.5541,    -0.15,          0,     0.00,          0,     0.00,          0,     0.00,    55.5541,    -0.15,          0,     0.00,          0,     0.00,          0,     0.00,          0,     0.00,          0,     0.00
Line.LN5531956-1,    1.28904,   -58.00,          0,     0.00,          0,     0.00,          0,     0.00,    1.28904,   -58.00,    1.28935,   121.95,          0,     0.00,          0,     0.00,          0,     0.00,    1.28935,   121.95,          0,     0.00,          0,     0.00,          0,     0.00,          0,     0.00,          0,     0.00
Line.LN5650048-1,    1.40779,   179.81,          0,     0.00,          0,     0.00,          0,     0.00,    1.40779,   179.81,    1.40807,    -0.23,          0,     0.00,          0,     0.00,          0,     0.00,    1.40807,    -0.23,          0,     0.00,          0,     0.00,          0,     0.00,          0,     0.00,          0,     0.00
Line.LN6290203-1,    21.9655,   -59.04,    54.7985,   178.16,    39.1331,    64.20,          0,     0.00,    32.0757,   145.52,    21.9662,   120.95,    54.7994,    -1.85,    39.1336,  -115.80,          0,     0.00,    32.0756,   -34.48,          0,     0.00,          0,     0.00,          0,     0.00,          0,     0.00,          0,     0.00
Line.LN6134414-1,    2.84587,    65.74,          0,     0.00,          0,     0.00,          0,     0.00,    2.84587,    65.74,    2.84615,  -114.28,          0,     0.00,          0,     0.00,          0,     0.00,    2.84615,  -114.28,          0,     0.00,          0,     0.00,          0,     0.00,          0,     0.00,          0,     0.00
Line.LN6259998-2,    1.73198,    64.81,          0,     0.00,          0,     0.00,          0,     0.00,    1.73198,    64.81,    1.73204,  -115.20,          0,     0.00,          0,     0.00,          0,     0.00,    1.73204,  -115.20,          0,     0.00,          0,     0.00,          0,     0.00,          0,     0.00,          0,     0.00
Line.LN6078767-1,    106.836,   -30.84,    126.099,  -155.63,    155.302,    82.12,          0,     0.00,    47.0869,    92.25,    106.836,   149.16,    126.099,    24.37,    155.302,   -97.88,          0,     0.00,    47.0868,   -87.75,          0,     0.00,          0,     0.00,          0,     0.00,          0,     0.00,          0,     0.00
Line.LN6017300-1,   0.860144,    65.56,          0,     0.00,          0,     0.00,          0,     0.00,   0.860144,    65.56,   0.860541,  -114.54,          0,     0.00,          0,     0.00,          0,     0.00,   0.860541,  -114.54,          0,     0.00,          0,     0.00,          0,     0.00,          0,     0.00,          0,     0.00
Line.LN8979257-2,    1.35568,   -55.06,    1.44655,  -176.08,    1.43242,    67.13,          0,     0.00,    0.15544,   135.13,    1.35611,   124.87,    1.44699,     3.85,    1.43288,  -112.94,          0,     0.00,   0.155392,   -44.94,          0,     0.00,          0,     0.00,          0,     0.00,          0,     0.00,          0,     0.00
Line.LN81048109-1,    4.38994,  -176.11,          0,     0.00,          0,     0.00,          0,     0.00,    4.38994,  -176.11,    4.39182,     3.80,          0,     0.00,          0,     0.00,          0,     0.00,    4.39182,     3.80,          0,     0.00,          0,     0.00,          0,     0.00,          0,     0.00,          0,     0.00
Line.293471,     1.2907,   -55.71,    1.42648,  -176.64,    1.44256,    65.00,          0,     0.00,   0.179845,   118.97,    1.29092,   124.26,    1.42672,     3.33,    1.44273,  -115.04,          0,     0.00,   0.179817,   -61.03,          0,     0.00,          0,     0.00,          0,     0.00,          0,     0.00,          0,     0.00
Line.LN5534965-2,    1.27676,   -59.31,          0,     0.00,          0,     0.00,          0,     0.00,    1.27676,   -59.31,    1.27678,   120.68,          0,     0.00,          0,     0.00,          0,     0.00,    1.27678,   120.68,          0,     0.00,          0,     0.00,          0,     0.00,          0,     0.00,          0,     0.00
Line.LN5655683-1,    20.4504,   -59.54,          0,     0.00,          0,     0.00,          0,     0.00,    20.4504,   -59.54,    20.4505,   120.46,          0,     0.00,          0,     0.00,          0,     0.00,    20.4505,   120.46,          0,     0.00,          0,     0.00,          0,     0.00,          0,     0.00,          0,     0.00
Line.LN5686247-1,    1.99125,  -174.18,          0,     0.00,          0,     0.00,          0,     0.00,    1.99125,  -174.18,    1.99128,     5.81,          0,     0.00,          0,     0.00,          0,     0.00,    1.99128,     5.81,          0,     0.00,          0,     0.00,          0,     0.00,          0,     0.00,          0,     0.00
Line.LN6048642-1, 0.00189627,   -69.37,          0,     0.00,          0,     0.00,          0,     0.00, 0.00189627,   -69.37, 1.81899E-012,   -90.00,          0,     0.00,          0,     0.00,          0,     0.00, 1.81899E-012,   -90.00,          0,     0.00,          0,     0.00,          0,     0.00,          0,     0.00,          0,     0.00
Line.LN5928544-3,    14.5249,    64.45,          0,     0.00,          0,     0.00,          0,     0.00,    14.5249,    64.45,    14.5252,  -115.55,          0,     0.00,          0,     0.00,          0,     0.00,    14.5252,  -115.55,          0,     0.00,          0,     0.00,          0,     0.00,          0,     0.00,          0,     0.00
Line.LN6108172-1,    2.59446,   -59.54,          0,     0.00,          0,     0.00,          0,     0.00,    2.59446,   -59.54,     2.5954,   120.38,          0,     0.00,          0,     0.00,          0,     0.00,     2.5954,   120.38,          0,     0.00,          0,     0.00,          0,     0.00,          0,     0.00,          0,     0.00
Line.LN5532754-1,     56.982,   -59.46,    14.8714,   179.14,    27.6827,    65.04,          0,     0.00,    35.0467,   -42.68,    56.9821,   120.54,    14.8716,    -0.86,    27.6828,  -114.96,          0,     0.00,    35.0467,   137.32,          0,     0.00,          0,     0.00,          0,     0.00,          0,     0.00,          0,     0.00
Line.LN5591834-1,    3.71978,    67.55,          0,     0.00,          0,     0.00,          0,     0.00,    3.71978,    67.55,     3.7201,  -112.47,          0,     0.00,          0,     0.00,          0,     0.00,     3.7201,  -112.47,          0,     0.00,          0,     0.00,          0,     0.00,          0,     0.00,          0,     0.00
Line.LN6347196-2,    28.0294,   -59.47,    10.5801,   179.11,    25.3618,    64.99,          0,     0.00,    14.4164,    -3.96,    28.0296,   120.53,    10.5803,    -0.89,    25.3619,  -115.01,          0,     0.00,    14.4164,   176.04,          0,     0.00,          0,     0.00,          0,     0.00,          0,     0.00,          0,     0.00
Line.LN5532741-1,    8.97562,    66.51,          0,     0.00,          0,     0.00,          0,     0.00,    8.97562,    66.51,    8.97589,  -113.49,          0,     0.00,          0,     0.00,          0,     0.00,    8.97589,  -113.49,          0,     0.00,          0,     0.00,          0,     0.00,          0,     0.00,          0,     0.00
Line.LN5804803-1,   0.776189,   -55.26,          0,     0.00,          0,     0.00,          0,     0.00,   0.776189,   -55.26,   0.777507,   124.37,          0,     0.00,          0,     0.00,          0,     0.00,   0.777507,   124.37,          0,     0.00,          0,     0.00,          0,     0.00,          0,     0.00,          0,     0.00
Line.LN6169248-1,    111.705,   -59.68,    74.5277,   178.17,    45.2677,    64.83,          0,     0.00,    53.0948,   -88.76,    111.706,   120.32,    74.5286,    -1.83,    45.2681,  -115.17,          0,     0.00,    53.0948,    91.24,          0,     0.00,          0,     0.00,          0,     0.00,          0,     0.00,          0,     0.00
Line.LN5532786-2,    2.25399,   178.38,          0,     0.00,          0,     0.00,          0,     0.00,    2.25399,   178.38,    2.25406,    -1.63,          0,     0.00,          0,     0.00,          0,     0.00,    2.25406,    -1.63,          0,     0.00,          0,     0.00,          0,     0.00,          0,     0.00,          0,     0.00
Line.LN5744339-1,     16.527,   -55.63,          0,     0.00,          0,     0.00,          0,     0.00,     16.527,   -55.63,    16.5274,   124.36,          0,     0.00,          0,     0.00,          0,     0.00,    16.5274,   124.36,          0,     0.00,          0,     0.00,          0,     0.00,          0,     0.00,          0,     0.00
Line.LN5531255-3,    16.9835,   -59.78,          0,     0.00,          0,     0.00,          0,     0.00,    16.9835,   -59.78,    16.9838,   120.22,          0,     0.00,          0,     0.00,          0,     0.00,    16.9838,   120.22,          0,     0.00,          0,     0.00,          0,     0.00,          0,     0.00,          0,     0.00
Line.LN5926308-2,    40.3781,   -55.58,    49.1102,  -176.76,    19.1691,    65.20,          0,     0.00,    26.0586,  -134.20,    40.3784,   124.42,    49.1105,     3.24,    19.1692,  -114.80,          0,     0.00,    26.0586,    45.80,          0,     0.00,          0,     0.00,          0,     0.00,          0,     0.00,          0,     0.00
Line.LN5683856-3,     1.2748,   -59.35,          0,     0.00,          0,     0.00,          0,     0.00,     1.2748,   -59.35,    1.27492,   120.63,          0,     0.00,          0,     0.00,          0,     0.00,    1.27492,   120.63,          0,     0.00,          0,     0.00,          0,     0.00,          0,     0.00,          0,     0.00
Line.LN6171502-1,    2.03715,   -59.27,          0,     0.00,          0,     0.00,          0,     0.00,    2.03715,   -59.27,    2.03719,   120.73,          0,     0.00,          0,     0.00,          0,     0.00,    2.03719,   120.73,          0,     0.00,          0,     0.00,          0,     0.00,          0,     0.00,          0,     0.00
Line.LN5593228-1,    1.40286,   178.03,          0,     0.00,          0,     0.00,          0,     0.00,    1.40286,   178.03,    1.40314,    -2.01,          0,     0.00,          0,     0.00,          0,     0.00,    1.40314,    -2.01,          0,     0.00,          0,     0.00,          0,     0.00,          0,     0.00,          0,     0.00
Line.LN6380800-1,     1.4145,   177.91,          0,     0.00,          0,     0.00,          0,     0.00,     1.4145,   177.91,    1.41477,    -2.13,          0,     0.00,          0,     0.00,          0,     0.00,    1.41477,    -2.13,          0,     0.00,          0,     0.00,          0,     0.00,          0,     0.00,          0,     0.00
Line.LN6199525-2,   0.519193,   -55.61,          0,     0.00,          0,     0.00,          0,     0.00,   0.519193,   -55.61,   0.519508,   124.26,          0,     0.00,          0,     0.00,          0,     0.00,   0.519508,   124.26,          0,     0.00,          0,     0.00,          0,     0.00,          0,     0.00,          0,     0.00
Line.LN5772710-2,    10.2286,   -59.71,          0,     0.00,          0,     0.00,          0,     0.00,    10.2286,   -59.71,     10.229,   120.28,          0,     0.00,          0,     0.00,          0,     0.00,     10.229,   120.28,          0,     0.00,          0,     0.00,          0,     0.00,          0,     0.00,          0,     0.00
Line.LN8961760-1,    5.02308,    64.99,          0,     0.00,          0,     0.00,          0,     0.00,    5.02308,    64.99,    5.02318,  -115.02,          0,     0.00,          0,     0.00,          0,     0.00,    5.02318,  -115.02,          0,     0.00,          0,     0.00,          0,     0.00,          0,     0.00,          0,     0.00
Line.LN6047556-1,    1.42318,    65.71,          0,     0.00,          0,     0.00,          0,     0.00,    1.42318,    65.71,    1.42371,  -114.37,          0,     0.00,          0,     0.00,          0,     0.00,    1.42371,  -114.37,          0,     0.00,          0,     0.00,          0,     0.00,          0,     0.00,          0,     0.00
Line.LN6138603-1,    2.23687,   178.17,          0,     0.00,          0,     0.00,          0,     0.00,    2.23687,   178.17,    2.23744,    -1.88,          0,     0.00,          0,     0.00,          0,     0.00,    2.23744,    -1.88,          0,     0.00,          0,     0.00,          0,     0.00,          0,     0.00,          0,     0.00
Line.LN6108139-1,   0.861762,   177.95,          0,     0.00,          0,     0.00,          0,     0.00,   0.861762,   177.95,   0.861845,    -2.07,          0,     0.00,          0,     0.00,          0,     0.00,   0.861845,    -2.07,          0,     0.00,          0,     0.00,          0,     0.00,          0,     0.00,          0,     0.00
Line.LN6388581-2,   0.781122,   -59.23,          0,     0.00,          0,     0.00,          0,     0.00,   0.781122,   -59.23,    0.78136,   120.71,          0,     0.00,          0,     0.00,          0,     0.00,    0.78136,   120.71,          0,     0.00,          0,     0.00,          0,     0.00,          0,     0.00,          0,     0.00
Line.LN5774460-1,   0.779558,   -59.64,          0,     0.00,          0,     0.00,          0,     0.00,   0.779558,   -59.64,   0.779827,   120.29,          0,     0.00,          0,     0.00,          0,     0.00,   0.779827,   120.29,          0,     0.00,          0,     0.00,          0,     0.00,          0,     0.00,          0,     0.00
Line.LN5624387-1,    2.19068,    66.56,          0,     0.00,          0,     0.00,          0,     0.00,    2.19068,    66.56,    2.19093,  -113.47,          0,     0.00,          0,     0.00,          0,     0.00,    2.19093,  -113.47,          0,     0.00,          0,     0.00,          0,     0.00,          0,     0.00,          0,     0.00
Line.LN6137087-1,     11.562,    65.54,          0,     0.00,          0,     0.00,          0,     0.00,     11.562,    65.54,    11.5621,  -114.47,          0,     0.00,          0,     0.00,          0,     0.00,    11.5621,  -114.47,          0,     0.00,          0,     0.00,          0,     0.00,          0,     0.00,          0,     0.00
Line.LN6077809-1,    14.5572,    64.56,          0,     0.00,          0,     0.00,          0,     0.00,    14.5572,    64.56,    14.5577,  -115.44,          0,     0.00,          0,     0.00,          0,     0.00,    14.5577,  -115.44,          0,     0.00,          0,     0.00,          0,     0.00,          0,     0.00,          0,     0.00
Line.LN6440079-1,     3.7201,    67.53,          0,     0.00,          0,     0.00,          0,     0.00,     3.7201,    67.53,    3.72034,  -112.48,          0,     0.00,          0,     0.00,          0,     0.00,    3.72034,  -112.48,          0,     0.00,          0,     0.00,          0,     0.00,          0,     0.00,          0,     0.00
Line.LN5804794-1,    11.4879,   -55.27,          0,     0.00,          0,     0.00,          0,     0.00,    11.4879,   -55.27,    11.4882,   124.72,          0,     0.00,          0,     0.00,          0,     0.00,    11.4882,   124.72,          0,     0.00,          0,     0.00,          0,     0.00,          0,     0.00,          0,     0.00
Line.LN5654484-1,    1.43994,    66.69,          0,     0.00,          0,     0.00,          0,     0.00,    1.43994,    66.69,    1.44007,  -113.33,          0,     0.00,          0,     0.00,          0,     0.00,    1.44007,  -113.33,          0,     0.00,          0,     0.00,          0,     0.00,          0,     0.00,          0,     0.00
Line.LN5774465-1,    2.60461,   -59.25,          0,     0.00,          0,     0.00,          0,     0.00,    2.60461,   -59.25,    2.60515,   120.71,          0,     0.00,          0,     0.00,          0,     0.00,    2.60515,   120.71,          0,     0.00,          0,     0.00,          0,     0.00,          0,     0.00,          0,     0.00
Line.LN5473349-1,    299.343,   -49.03,    303.146,  -170.99,    210.644,    80.21,          0,     0.00,    94.2167,  -135.59,    299.343,   130.97,    303.146,     9.01,    210.644,   -99.79,          0,     0.00,    94.2167,    44.41,          0,     0.00,          0,     0.00,          0,     0.00,          0,     0.00,          0,     0.00
Line.LN6169253-1,     1.2977,   -59.61,          0,     0.00,          0,     0.00,          0,     0.00,     1.2977,   -59.61,    1.29795,   120.35,          0,     0.00,          0,     0.00,          0,     0.00,    1.29795,   120.35,          0,     0.00,          0,     0.00,          0,     0.00,          0,     0.00,          0,     0.00
Line.LN6350536-1,   0.776152,   -59.73,          0,     0.00,          0,     0.00,          0,     0.00,   0.776152,   -59.73,   0.776904,   120.06,          0,     0.00,          0,     0.00,          0,     0.00,   0.776904,   120.06,          0,     0.00,          0,     0.00,          0,     0.00,          0,     0.00,          0,     0.00
Line.LN6048523-1,    20.8453,    69.94,          0,     0.00,          0,     0.00,          0,     0.00,    20.8453,    69.94,    20.8457,  -110.07,          0,     0.00,          0,     0.00,          0,     0.00,    20.8457,  -110.07,          0,     0.00,          0,     0.00,          0,     0.00,          0,     0.00,          0,     0.00
Line.LN5594152-1,    23.1453,    69.98,          0,     0.00,          0,     0.00,          0,     0.00,    23.1453,    69.98,    23.1459,  -110.02,          0,     0.00,          0,     0.00,          0,     0.00,    23.1459,  -110.02,          0,     0.00,          0,     0.00,          0,     0.00,          0,     0.00,          0,     0.00
Line.LN5865248-1,    47.2844,   -55.58,     51.236,  -176.74,    19.1675,    65.23,          0,     0.00,    29.4915,  -123.78,    47.2847,   124.42,    51.2364,     3.25,    19.1678,  -114.78,          0,     0.00,    29.4915,    56.22,          0,     0.00,          0,     0.00,          0,     0.00,          0,     0.00,          0,     0.00
Line.LN6046143-1,    0.55825,   179.93,          0,     0.00,          0,     0.00,          0,     0.00,    0.55825,   179.93,   0.558647,    -0.23,          0,     0.00,          0,     0.00,          0,     0.00,   0.558647,    -0.23,          0,     0.00,          0,     0.00,          0,     0.00,          0,     0.00,          0,     0.00
Line.LN5803287-1,     2.9044,    66.67,          0,     0.00,          0,     0.00,          0,     0.00,     2.9044,    66.67,     2.9045,  -113.34,          0,     0.00,          0,     0.00,          0,     0.00,     2.9045,  -113.34,          0,     0.00,          0,     0.00,          0,     0.00,          0,     0.00,          0,     0.00
Line.LN5589094-1,    31.7519,    70.03,          0,     0.00,          0,     0.00,          0,     0.00,    31.7519,    70.03,    31.7522,  -109.98,          0,     0.00,          0,     0.00,          0,     0.00,    31.7522,  -109.98,          0,     0.00,          0,     0.00,          0,     0.00,          0,     0.00,          0,     0.00
Line.LN5954983-1,    16.9838,   -59.78,          0,     0.00,          0,     0.00,          0,     0.00,    16.9838,   -59.78,    16.9842,   120.21,          0,     0.00,          0,     0.00,          0,     0.00,    16.9842,   120.21,          0,     0.00,          0,     0.00,          0,     0.00,          0,     0.00,          0,     0.00
Line.LN5924696-2,   0.758609,   -59.20,          0,     0.00,          0,     0.00,          0,     0.00,   0.758609,   -59.20,   0.758806,   120.74,          0,     0.00,          0,     0.00,          0,     0.00,   0.758806,   120.74,          0,     0.00,          0,     0.00,          0,     0.00,          0,     0.00,          0,     0.00
Line.LN6506311-4, 4.86153E-005,    51.21, 5.19642E-005,   -68.21,   0.857384,    66.95,          0,     0.00,   0.857394,    66.95, 7.6453E-010,    81.79, 3.02806E-010,  -144.78,   0.857394,  -113.05,          0,     0.00,   0.857394,  -113.05,          0,     0.00,          0,     0.00,          0,     0.00,          0,     0.00,          0,     0.00
Line.LN5653493-1,    17.1173,   178.03,          0,     0.00,          0,     0.00,          0,     0.00,    17.1173,   178.03,    17.1174,    -1.97,          0,     0.00,          0,     0.00,          0,     0.00,    17.1174,    -1.97,          0,     0.00,          0,     0.00,          0,     0.00,          0,     0.00,          0,     0.00
Line.LN5684836-1,    329.276,   -49.03,    322.091,  -170.98,    223.819,    79.46,          0,     0.00,    99.9995,  -127.78,    329.276,   130.97,    322.092,     9.02,    223.819,  -100.54,          0,     0.00,    99.9994,    52.22,          0,     0.00,          0,     0.00,          0,     0.00,          0,     0.00,          0,     0.00
Line.LN5715016-3,     0.7776,   -53.81,          0,     0.00,          0,     0.00,          0,     0.00,     0.7776,   -53.81,   0.777934,   126.10,          0,     0.00,          0,     0.00,          0,     0.00,   0.777934,   126.10,          0,     0.00,          0,     0.00,          0,     0.00,          0,     0.00,          0,     0.00
Line.LN6138614-1,    56.5107,    -9.26,    57.1354,  -131.51,    43.4681,   138.38,          0,     0.00,    27.2435,  -122.38,    56.5097,   170.74,    57.1345,    48.49,    43.4664,   -41.62,          0,     0.00,    27.2435,    57.62,          0,     0.00,          0,     0.00,          0,     0.00,          0,     0.00,          0,     0.00
Line.LN6077781-2,    261.281,   -59.43,     239.28,   178.33,    194.524,    64.74,          0,     0.00,     48.108,  -118.97,    261.282,   120.57,    239.281,    -1.67,    194.525,  -115.26,          0,     0.00,     48.108,    61.03,          0,     0.00,          0,     0.00,          0,     0.00,          0,     0.00,          0,     0.00
Line.LN5675121-1,   0.567846,    66.13,          0,     0.00,          0,     0.00,          0,     0.00,   0.567846,    66.13,   0.568278,  -114.03,          0,     0.00,          0,     0.00,          0,     0.00,   0.568278,  -114.03,          0,     0.00,          0,     0.00,          0,     0.00,          0,     0.00,          0,     0.00
Line.LN5773046-1,    34.6609,   179.82,          0,     0.00,          0,     0.00,          0,     0.00,    34.6609,   179.82,    34.6613,    -0.18,          0,     0.00,          0,     0.00,          0,     0.00,    34.6613,    -0.18,          0,     0.00,          0,     0.00,          0,     0.00,          0,     0.00,          0,     0.00
Line.LN6380809-2,    23.1027,   -59.02,    71.5116,   178.30,    8.00193,    65.00,          0,     0.00,    57.1671,  -169.49,    23.1028,   120.98,    71.5116,    -1.70,    8.00198,  -115.00,          0,     0.00,    57.1671,    10.51,          0,     0.00,          0,     0.00,          0,     0.00,          0,     0.00,          0,     0.00
Line.LN6018326-1,    1.70756,    68.78,          0,     0.00,          0,     0.00,          0,     0.00,    1.70756,    68.78,    1.70783,  -111.25,          0,     0.00,          0,     0.00,          0,     0.00,    1.70783,  -111.25,          0,     0.00,          0,     0.00,          0,     0.00,          0,     0.00,          0,     0.00
Line.LN5472356-1,   0.570119,   178.13,          0,     0.00,          0,     0.00,          0,     0.00,   0.570119,   178.13,   0.570402,    -1.98,          0,     0.00,          0,     0.00,          0,     0.00,   0.570402,    -1.98,          0,     0.00,          0,     0.00,          0,     0.00,          0,     0.00,          0,     0.00
Line.LN6139641-1,    398.087,   -50.14,    382.036,  -171.79,    265.472,    77.51,          0,     0.00,    120.383,  -123.01,    398.087,   129.86,    382.037,     8.21,    265.472,  -102.49,          0,     0.00,    120.383,    56.99,          0,     0.00,          0,     0.00,          0,     0.00,          0,     0.00,          0,     0.00
Line.LN6018341-1,    101.002,   -29.44,    114.973,  -153.80,    150.444,    82.61,          0,     0.00,    48.9506,    85.14,    101.002,   150.55,    114.973,    26.20,    150.443,   -97.39,          0,     0.00,    48.9505,   -94.86,          0,     0.00,          0,     0.00,          0,     0.00,          0,     0.00,          0,     0.00
Line.LN6017302-1,     2.0748,   -55.43,    39.4112,  -176.84,   0.861067,    65.46,          0,     0.00,    37.9431,  -175.32,    2.07517,   124.53,    39.4117,     3.16,   0.861346,  -114.64,          0,     0.00,     37.943,     4.68,          0,     0.00,          0,     0.00,          0,     0.00,          0,     0.00,          0,     0.00
Line.LN6199505-1,   0.563045,   177.92,          0,     0.00,          0,     0.00,          0,     0.00,   0.563045,   177.92,   0.563205,    -2.14,          0,     0.00,          0,     0.00,          0,     0.00,   0.563205,    -2.14,          0,     0.00,          0,     0.00,          0,     0.00,          0,     0.00,          0,     0.00
Line.LN5682327-1,    19.2959,   -59.68,          0,     0.00,          0,     0.00,          0,     0.00,    19.2959,   -59.68,    19.2959,   120.32,          0,     0.00,          0,     0.00,          0,     0.00,    19.2959,   120.32,          0,     0.00,          0,     0.00,          0,     0.00,          0,     0.00,          0,     0.00
Line.LN6290243-1,    2.85394,  -176.56,          0,     0.00,          0,     0.00,          0,     0.00,    2.85394,  -176.56,    2.85424,     3.42,          0,     0.00,          0,     0.00,          0,     0.00,    2.85424,     3.42,          0,     0.00,          0,     0.00,          0,     0.00,          0,     0.00,          0,     0.00
Line.X8223_48332_SW,    78.7269,   -24.19,    83.8995,  -147.68,    45.9079,   130.30,          0,     0.00,    51.0002,  -124.36,    78.7269,   155.81,    83.8995,    32.32,    45.9079,   -49.70,          0,     0.00,    51.0002,    55.64,          0,     0.00,          0,     0.00,          0,     0.00,          0,     0.00,          0,     0.00
Line.LN6413567-3,     78.727,   -24.19,    83.8996,  -147.68,    45.9082,   130.30,          0,     0.00,    51.0002,  -124.36,    78.7269,   155.81,    83.8995,    32.32,    45.9079,   -49.70,          0,     0.00,    51.0002,    55.64,          0,     0.00,          0,     0.00,          0,     0.00,          0,     0.00,          0,     0.00
Line.LN5591731-3,    353.535,   -49.51,    325.704,  -171.05,    226.332,    79.32,          0,     0.00,    109.353,  -117.36,    353.535,   130.49,    325.704,     8.95,    226.332,  -100.68,          0,     0.00,    109.353,    62.64,          0,     0.00,          0,     0.00,          0,     0.00,          0,     0.00,          0,     0.00
Line.LN5653470-1,    1.29228,   -59.54,    1.38609,   178.86,    1.45628,    64.88,          0,     0.00,   0.258075,   115.85,    1.29268,   120.41,    1.38652,    -1.19,    1.45652,  -115.17,          0,     0.00,    0.25807,   -64.15,          0,     0.00,          0,     0.00,          0,     0.00,          0,     0.00,          0,     0.00
Line.LN6017316-1,    34.5801,   177.99,          0,     0.00,          0,     0.00,          0,     0.00,    34.5801,   177.99,    34.5806,    -2.02,          0,     0.00,          0,     0.00,          0,     0.00,    34.5806,    -2.02,          0,     0.00,          0,     0.00,          0,     0.00,          0,     0.00,          0,     0.00
Line.LN5926299-1,    2.86045,   178.18,          0,     0.00,          0,     0.00,          0,     0.00,    2.86045,   178.18,    2.86072,    -1.84,          0,     0.00,          0,     0.00,          0,     0.00,    2.86072,    -1.84,          0,     0.00,          0,     0.00,          0,     0.00,          0,     0.00,          0,     0.00
Line.LN5683831-1,    47.2836,   -55.58,    51.2351,  -176.74,    23.4839,    65.18,          0,     0.00,    25.2331,  -125.26,     47.284,   124.42,    51.2356,     3.26,    23.4843,  -114.82,          0,     0.00,    25.2331,    54.74,          0,     0.00,          0,     0.00,          0,     0.00,          0,     0.00,          0,     0.00
Line.LN6352700-1,    5.29312,   -54.44,          0,     0.00,          0,     0.00,          0,     0.00,    5.29312,   -54.44,    5.29313,   125.56,          0,     0.00,          0,     0.00,          0,     0.00,    5.29313,   125.56,          0,     0.00,          0,     0.00,          0,     0.00,          0,     0.00,          0,     0.00
Line.LN6047570-1,    0.74692,   -54.96,          0,     0.00,          0,     0.00,          0,     0.00,    0.74692,   -54.96,   0.747129,   124.98,          0,     0.00,          0,     0.00,          0,     0.00,   0.747129,   124.98,          0,     0.00,          0,     0.00,          0,     0.00,          0,     0.00,          0,     0.00
Line.LN5624342-1,     330.64,   -49.06,    325.708,  -171.06,    223.819,    79.46,          0,     0.00,    102.799,  -128.60,     330.64,   130.94,    325.709,     8.94,    223.819,  -100.54,          0,     0.00,    102.799,    51.40,          0,     0.00,          0,     0.00,          0,     0.00,          0,     0.00,          0,     0.00
Line.LN6259992-1,     1.3255,   -54.52,          0,     0.00,          0,     0.00,          0,     0.00,     1.3255,   -54.52,     1.3257,   125.45,          0,     0.00,          0,     0.00,          0,     0.00,     1.3257,   125.45,          0,     0.00,          0,     0.00,          0,     0.00,          0,     0.00,          0,     0.00
Line.LN5841919-1,   0.861901,   178.02,          0,     0.00,          0,     0.00,          0,     0.00,   0.861901,   178.02,   0.862309,    -2.09,          0,     0.00,          0,     0.00,          0,     0.00,   0.862309,    -2.09,          0,     0.00,          0,     0.00,          0,     0.00,          0,     0.00,          0,     0.00
Line.LN6380811-1,    16.3941,   178.18,          0,     0.00,          0,     0.00,          0,     0.00,    16.3941,   178.18,    16.3948,    -1.83,          0,     0.00,          0,     0.00,          0,     0.00,    16.3948,    -1.83,          0,     0.00,          0,     0.00,          0,     0.00,          0,     0.00,          0,     0.00
Line.LN5683832-1,    1.27977,   -55.72,          0,     0.00,          0,     0.00,          0,     0.00,    1.27977,   -55.72,    1.28011,   124.23,          0,     0.00,          0,     0.00,          0,     0.00,    1.28011,   124.23,          0,     0.00,          0,     0.00,          0,     0.00,          0,     0.00,          0,     0.00
Line.LN6077778-1,    1.26051,   -55.26,          0,     0.00,          0,     0.00,          0,     0.00,    1.26051,   -55.26,    1.26089,   124.68,          0,     0.00,          0,     0.00,          0,     0.00,    1.26089,   124.68,          0,     0.00,          0,     0.00,          0,     0.00,          0,     0.00,          0,     0.00
Line.LN5561442-2,    396.108,   -50.12,    382.042,  -171.79,    260.401,    77.71,          0,     0.00,    124.734,  -123.44,    396.108,   129.88,    382.042,     8.21,    260.401,  -102.29,          0,     0.00,    124.734,    56.56,          0,     0.00,          0,     0.00,          0,     0.00,          0,     0.00,          0,     0.00
Line.LN6259983-1,    1.43635,   178.18,          0,     0.00,          0,     0.00,          0,     0.00,    1.43635,   178.18,    1.43709,    -1.93,          0,     0.00,          0,     0.00,          0,     0.00,    1.43709,    -1.93,          0,     0.00,          0,     0.00,          0,     0.00,          0,     0.00,          0,     0.00
Line.LN5865244-1,    16.0358,   -59.54,          0,     0.00,          0,     0.00,          0,     0.00,    16.0358,   -59.54,     16.036,   120.45,          0,     0.00,          0,     0.00,          0,     0.00,     16.036,   120.45,          0,     0.00,          0,     0.00,          0,     0.00,          0,     0.00,          0,     0.00
Line.LN6350555-1,   0.844702,   179.76,          0,     0.00,          0,     0.00,          0,     0.00,   0.844702,   179.76,   0.844982,    -0.31,          0,     0.00,          0,     0.00,          0,     0.00,   0.844982,    -0.31,          0,     0.00,          0,     0.00,          0,     0.00,          0,     0.00,          0,     0.00
Line.LN5714039-1,    5.62667,   -59.73,          0,     0.00,          0,     0.00,          0,     0.00,    5.62667,   -59.73,    5.62689,   120.26,          0,     0.00,          0,     0.00,          0,     0.00,    5.62689,   120.26,          0,     0.00,          0,     0.00,          0,     0.00,          0,     0.00,          0,     0.00
Line.LN5889821-1,     346.76,   -49.39,    325.706,  -171.06,    224.377,    79.43,          0,     0.00,     108.26,  -120.46,     346.76,   130.61,    325.707,     8.94,    224.377,  -100.57,          0,     0.00,     108.26,    59.54,          0,     0.00,          0,     0.00,          0,     0.00,          0,     0.00,          0,     0.00
Line.LN5804791-1,     63.375,   -15.39,     83.899,  -147.68,    45.9058,   130.30,          0,     0.00,    47.6491,  -145.98,    63.3742,   164.61,    83.8986,    32.32,    45.9042,   -49.70,          0,     0.00,    47.6491,    34.02,          0,     0.00,          0,     0.00,          0,     0.00,          0,     0.00,          0,     0.00
Line.LN5653486-1,    4.33484,    64.66,          0,     0.00,          0,     0.00,          0,     0.00,    4.33484,    64.66,    4.33522,  -115.36,          0,     0.00,          0,     0.00,          0,     0.00,    4.33522,  -115.36,          0,     0.00,          0,     0.00,          0,     0.00,          0,     0.00,          0,     0.00
Line.LN5926286-1,    4.34624,   -59.72,          0,     0.00,          0,     0.00,          0,     0.00,    4.34624,   -59.72,    4.34654,   120.27,          0,     0.00,          0,     0.00,          0,     0.00,    4.34654,   120.27,          0,     0.00,          0,     0.00,          0,     0.00,          0,     0.00,          0,     0.00
Line.LN6318859-1, 0.000973119,    49.22,          0,     0.00,          0,     0.00,          0,     0.00, 0.000973119,    49.22,          0,     0.00,          0,     0.00,          0,     0.00,          0,     0.00,          0,     0.00,          0,     0.00,          0,     0.00,          0,     0.00,          0,     0.00,          0,     0.00
Line.LN5926316-1,    11.5018,  -176.64,          0,     0.00,          0,     0.00,          0,     0.00,    11.5018,  -176.64,    11.5019,     3.35,          0,     0.00,          0,     0.00,          0,     0.00,    11.5019,     3.35,          0,     0.00,          0,     0.00,          0,     0.00,          0,     0.00,          0,     0.00
Line.LN5591703-1,    2.53357,   179.80,          0,     0.00,          0,     0.00,          0,     0.00,    2.53357,   179.80,    2.53384,    -0.22,          0,     0.00,          0,     0.00,          0,     0.00,    2.53384,    -0.22,          0,     0.00,          0,     0.00,          0,     0.00,          0,     0.00,          0,     0.00
Line.LN5531333-1,    5.51859,   -56.24,          0,     0.00,          0,     0.00,          0,     0.00,    5.51859,   -56.24,    5.51874,   123.76,          0,     0.00,          0,     0.00,          0,     0.00,    5.51874,   123.76,          0,     0.00,          0,     0.00,          0,     0.00,          0,     0.00,          0,     0.00
Line.LN6047581-1,   0.864032,  -176.81,          0,     0.00,          0,     0.00,          0,     0.00,   0.864032,  -176.81,   0.864163,     3.16,          0,     0.00,          0,     0.00,          0,     0.00,   0.864163,     3.16,          0,     0.00,          0,     0.00,          0,     0.00,          0,     0.00,          0,     0.00
Line.LN6349077-1, 0.000675857,   -76.31,          0,     0.00,          0,     0.00,          0,     0.00, 0.000675857,   -76.31, 3.25391E-011,   116.57,          0,     0.00,          0,     0.00,          0,     0.00, 3.25391E-011,   116.57,          0,     0.00,          0,     0.00,          0,     0.00,          0,     0.00,          0,     0.00
Line.LN6350574-1,    9.52024,   -55.20,    9.57859,  -176.19,    8.62575,    67.03,          0,     0.00,   0.913903,  -146.00,    9.52077,   124.79,    9.57925,     3.79,    8.62613,  -112.98,          0,     0.00,   0.913828,    34.00,          0,     0.00,          0,     0.00,          0,     0.00,          0,     0.00,          0,     0.00
Line.LN6320343-1,    17.2551,   -59.68,          0,     0.00,          0,     0.00,          0,     0.00,    17.2551,   -59.68,    17.2555,   120.32,          0,     0.00,          0,     0.00,          0,     0.00,    17.2555,   120.32,          0,     0.00,          0,     0.00,          0,     0.00,          0,     0.00,          0,     0.00
Line.LN81048100-5,    27.0271,  -176.20,          0,     0.00,          0,     0.00,          0,     0.00,    27.0271,  -176.20,    27.0281,     3.80,          0,     0.00,          0,     0.00,          0,     0.00,    27.0281,     3.80,          0,     0.00,          0,     0.00,          0,     0.00,          0,     0.00,          0,     0.00
Line.LN6348946-1,    1.39359,   179.95,          0,     0.00,          0,     0.00,          0,     0.00,    1.39359,   179.95,    1.39362,    -0.05,          0,     0.00,          0,     0.00,          0,     0.00,    1.39362,    -0.05,          0,     0.00,          0,     0.00,          0,     0.00,          0,     0.00,          0,     0.00
Line.LN5744351-1,    1.42073,    65.40,          0,     0.00,          0,     0.00,          0,     0.00,    1.42073,    65.40,    1.42107,  -114.65,          0,     0.00,          0,     0.00,          0,     0.00,    1.42107,  -114.65,          0,     0.00,          0,     0.00,          0,     0.00,          0,     0.00,          0,     0.00
Line.LN5472342-1,   0.766369,   -59.73,          0,     0.00,          0,     0.00,          0,     0.00,   0.766369,   -59.73,   0.766628,   120.19,          0,     0.00,          0,     0.00,          0,     0.00,   0.766628,   120.19,          0,     0.00,          0,     0.00,          0,     0.00,          0,     0.00,          0,     0.00
Line.LN5621849-1,    3.69191,    65.39,          0,     0.00,          0,     0.00,          0,     0.00,    3.69191,    65.39,    3.69193,  -114.61,          0,     0.00,          0,     0.00,          0,     0.00,    3.69193,  -114.61,          0,     0.00,          0,     0.00,          0,     0.00,          0,     0.00,          0,     0.00
Line.LN6379375-1,   0.785061,   -60.03,          0,     0.00,          0,     0.00,          0,     0.00,   0.785061,   -60.03,   0.785307,   119.90,          0,     0.00,          0,     0.00,          0,     0.00,   0.785307,   119.90,          0,     0.00,          0,     0.00,          0,     0.00,          0,     0.00,          0,     0.00
Line.LN6028890-1,    1.99173,   -54.51,    2.92355,  -174.86,    2.19863,    66.14,          0,     0.00,   0.875345,   171.65,      1.992,   125.47,    2.92385,     5.12,    2.19883,  -113.88,          0,     0.00,   0.875325,    -8.34,          0,     0.00,          0,     0.00,          0,     0.00,          0,     0.00,          0,     0.00
Line.LN6380822-1,    77.0067,   -59.71,    72.4553,   178.15,    43.8366,    64.81,          0,     0.00,     28.679,  -121.36,    77.0078,   120.28,    72.4565,    -1.85,    43.8373,  -115.19,          0,     0.00,     28.679,    58.64,          0,     0.00,          0,     0.00,          0,     0.00,          0,     0.00,          0,     0.00
Line.LN5835131-1,    21.9662,   -59.05,    52.6774,   178.15,    39.1336,    64.20,          0,     0.00,    30.3136,   143.34,     21.967,   120.95,    52.6783,    -1.86,    39.1341,  -115.81,          0,     0.00,    30.3136,   -36.66,          0,     0.00,          0,     0.00,          0,     0.00,          0,     0.00,          0,     0.00
Line.LN5803262-7,   0.573336,    64.95,          0,     0.00,          0,     0.00,          0,     0.00,   0.573336,    64.95,     0.5734,  -115.07,          0,     0.00,          0,     0.00,          0,     0.00,     0.5734,  -115.07,          0,     0.00,          0,     0.00,          0,     0.00,          0,     0.00,          0,     0.00
Line.LN81048089-1,    15.7133,   -55.20,          0,     0.00,          0,     0.00,          0,     0.00,    15.7133,   -55.20,    15.7158,   124.77,          0,     0.00,          0,     0.00,          0,     0.00,    15.7158,   124.77,          0,     0.00,          0,     0.00,          0,     0.00,          0,     0.00,          0,     0.00
Line.LN6201699-1,    2.05091,   -55.59,          0,     0.00,          0,     0.00,          0,     0.00,    2.05091,   -55.59,    2.05094,   124.40,          0,     0.00,          0,     0.00,          0,     0.00,    2.05094,   124.40,          0,     0.00,          0,     0.00,          0,     0.00,          0,     0.00,          0,     0.00
Line.LN5746548-1,     53.905,   -59.47,    14.8744,   179.11,    27.6844,    65.02,          0,     0.00,    32.1103,   -41.10,     53.905,   120.53,    14.8744,    -0.89,    27.6845,  -114.98,          0,     0.00,    32.1103,   138.90,          0,     0.00,          0,     0.00,          0,     0.00,          0,     0.00,          0,     0.00
Line.LN5835174-1,    35.7885,    66.55,          0,     0.00,          0,     0.00,          0,     0.00,    35.7885,    66.55,    35.7894,  -113.46,          0,     0.00,          0,     0.00,          0,     0.00,    35.7894,  -113.46,          0,     0.00,          0,     0.00,          0,     0.00,          0,     0.00,          0,     0.00
Line.LN6505947-4,    17.5942,   -59.55,          0,     0.00,          0,     0.00,          0,     0.00,    17.5942,   -59.55,    17.5942,   120.45,          0,     0.00,          0,     0.00,          0,     0.00,    17.5942,   120.45,          0,     0.00,          0,     0.00,          0,     0.00,          0,     0.00,          0,     0.00
Line.LN5683833-1,    29.4564,  -176.48,          0,     0.00,          0,     0.00,          0,     0.00,    29.4564,  -176.48,    29.4574,     3.52,          0,     0.00,          0,     0.00,          0,     0.00,    29.4574,     3.52,          0,     0.00,          0,     0.00,          0,     0.00,          0,     0.00,          0,     0.00
Line.LN5561439-3,    7.20697,   -57.84,     57.219,   179.88,    5.10873,    65.65,          0,     0.00,    51.2931,  -178.52,    7.20838,   122.12,    57.2206,    -0.13,    5.10959,  -114.41,          0,     0.00,     51.293,     1.48,          0,     0.00,          0,     0.00,          0,     0.00,          0,     0.00,          0,     0.00
Line.LN6109190-1,    4.55495,   -53.57,          0,     0.00,          0,     0.00,          0,     0.00,    4.55495,   -53.57,     4.5551,   126.42,          0,     0.00,          0,     0.00,          0,     0.00,     4.5551,   126.42,          0,     0.00,          0,     0.00,          0,     0.00,          0,     0.00,          0,     0.00
Line.LN6258435-2,    2.53482,   -59.23,          0,     0.00,          0,     0.00,          0,     0.00,    2.53482,   -59.23,    2.53491,   120.77,          0,     0.00,          0,     0.00,          0,     0.00,    2.53491,   120.77,          0,     0.00,          0,     0.00,          0,     0.00,          0,     0.00,          0,     0.00
Line.LN5804819-1,    0.83872,   179.99,          0,     0.00,          0,     0.00,          0,     0.00,    0.83872,   179.99,   0.839546,    -0.22,          0,     0.00,          0,     0.00,          0,     0.00,   0.839546,    -0.22,          0,     0.00,          0,     0.00,          0,     0.00,          0,     0.00,          0,     0.00
Line.LN5593215-1,    30.9195,   177.98,          0,     0.00,          0,     0.00,          0,     0.00,    30.9195,   177.98,    30.9198,    -2.02,          0,     0.00,          0,     0.00,          0,     0.00,    30.9198,    -2.02,          0,     0.00,          0,     0.00,          0,     0.00,          0,     0.00,          0,     0.00
Line.LN5833717-1,    28.5841,   -59.03,    68.4244,   178.23,    47.8447,    64.24,          0,     0.00,    38.8604,   147.83,    28.5846,   120.96,    68.4249,    -1.77,     47.845,  -115.76,          0,     0.00,    38.8604,   -32.17,          0,     0.00,          0,     0.00,          0,     0.00,          0,     0.00,          0,     0.00
Line.LN6199557-1,    28.5846,   -59.04,    66.3183,   178.22,     47.845,    64.24,          0,     0.00,    37.0641,   146.17,    28.5855,   120.96,    66.3194,    -1.78,    47.8456,  -115.76,          0,     0.00,     37.064,   -33.83,          0,     0.00,          0,     0.00,          0,     0.00,          0,     0.00,          0,     0.00
Line.LN5744332-1,   0.870281,    66.59,          0,     0.00,          0,     0.00,          0,     0.00,   0.870281,    66.59,    0.87056,  -113.48,          0,     0.00,          0,     0.00,          0,     0.00,    0.87056,  -113.48,          0,     0.00,          0,     0.00,          0,     0.00,          0,     0.00,          0,     0.00
Line.LN5558790-1,    402.664,   -50.18,    382.033,  -171.79,    269.845,    77.36,          0,     0.00,    117.686,  -121.32,    402.664,   129.82,    382.033,     8.21,    269.845,  -102.64,          0,     0.00,    117.686,    58.68,          0,     0.00,          0,     0.00,          0,     0.00,          0,     0.00,          0,     0.00
Line.LN6078692-1,     30.328,    70.00,          0,     0.00,          0,     0.00,          0,     0.00,     30.328,    70.00,    30.3283,  -110.00,          0,     0.00,          0,     0.00,          0,     0.00,    30.3283,  -110.00,          0,     0.00,          0,     0.00,          0,     0.00,          0,     0.00,          0,     0.00
Line.LN5956482-1,    49.1091,   179.84,          0,     0.00,          0,     0.00,          0,     0.00,    49.1091,   179.84,    49.1092,    -0.16,          0,     0.00,          0,     0.00,          0,     0.00,    49.1092,    -0.16,          0,     0.00,          0,     0.00,          0,     0.00,          0,     0.00,          0,     0.00
Line.LN5593225-1,     1.4302,   178.19,          0,     0.00,          0,     0.00,          0,     0.00,     1.4302,   178.19,    1.43055,    -1.86,          0,     0.00,          0,     0.00,          0,     0.00,    1.43055,    -1.86,          0,     0.00,          0,     0.00,          0,     0.00,          0,     0.00,          0,     0.00
...